
data_Al
_symmetry_space_group_name_H-M   'P 1'
_cell_length_a   5.70558868814
_cell_length_b   5.70558868814
_cell_length_c   34.9394503837
_cell_angle_alpha   90.
_cell_angle_beta   90.
_cell_angle_gamma   120
_symmetry_Int_Tables_number   1
_chemical_formula_structural   Al
_chemical_formula_sum   Al37
_cell_volume   1137.40986313
_cell_formula_units_Z   37
loop_
_symmetry_equiv_pos_site_id
_symmetry_equiv_pos_as_xyz
1  'x, y, z'
loop_
_atom_site_type_symbol
_atom_site_label
_atom_site_symmetry_multiplicity
_atom_site_fract_x
_atom_site_fract_y
_atom_site_fract_z
_atom_site_occupancy
Al Al1 1 0.333316466 0.166681228 0.666919234 1
Al Al2 1 0.333349705 0.667125541 0.666627339 1
Al Al3 1 0.832871144 0.16664755 0.666627321 1
Al Al4 1 0.833283289 0.666714773 0.666827106 1
Al Al5 1 0.164625886 0.335379431 0.935807572 1
Al Al6 1 0.162375049 0.837560411 0.93326134 1
Al Al7 1 0.662447292 0.337625686 0.933261305 1
Al Al8 1 0.665610356 0.834393871 0.932275698 1
Al Al9 1 0.000584387 0.000491996 0.79991103 1
Al Al10 1 0.00048283 0.499516804 0.800116712 1
Al Al11 1 0.500539366 -0.000537972 0.800709353 1
Al Al12 1 0.499505149 0.499413598 0.799911158 1
Al Al13 1 0.000201022 8.28e-05 0.600042633 1
Al Al14 1 -0.000169202 0.500167224 0.59980877 1
Al Al15 1 0.499862414 0.000134687 0.599798059 1
Al Al16 1 0.499914391 0.499795795 0.600042629 1
Al Al17 1 0.166618377 0.333380172 0.733237168 1
Al Al18 1 0.167080531 0.833600642 0.733571228 1
Al Al19 1 0.666399078 0.332919864 0.733571299 1
Al Al20 1 0.666367133 0.833632321 0.733413252 1
Al Al21 1 0.332748779 0.167258751 0.867062214 1
Al Al22 1 0.331963006 0.663631568 0.867301661 1
Al Al23 1 0.83638168 0.168047772 0.867301508 1
Al Al24 1 0.835129546 0.664877473 0.866262497 1
Al Al25 1 0.333546649 0.166450243 0.466278171 1
Al Al26 1 0.333276951 0.666763386 0.466422324 1
Al Al27 1 0.833234543 0.166721707 0.466422522 1
Al Al28 1 0.833363696 0.666634604 0.466273877 1
Al Al29 1 0.000985925 0.004439999 0.001971406 1
Al Al30 1 -0.011175738 0.511177682 2.7133e-05 1
Al Al31 1 0.511393215 -0.011390905 -0.00145294 1
Al Al32 1 0.495558645 0.499014275 0.001971317 1
Al Al33 1 0.166763145 0.333234333 0.533587583 1
Al Al34 1 0.166502699 0.832948708 0.533461303 1
Al Al35 1 0.667047846 0.333493947 0.533461393 1
Al Al36 1 0.667069037 0.832927716 0.533602997 1
H H37 1 0.25 0.25 0.034304828 1
