
data_Al
_symmetry_space_group_name_H-M   'P 1'
_cell_length_a   5.70558868814
_cell_length_b   5.70558868814
_cell_length_c   34.9394503837
_cell_angle_alpha   90.
_cell_angle_beta   90.
_cell_angle_gamma   120
_symmetry_Int_Tables_number   1
_chemical_formula_structural   Al
_chemical_formula_sum   Al37
_cell_volume   1137.40986313
_cell_formula_units_Z   37
loop_
_symmetry_equiv_pos_site_id
_symmetry_equiv_pos_as_xyz
1  'x, y, z'
loop_
_atom_site_type_symbol
_atom_site_label
_atom_site_symmetry_multiplicity
_atom_site_fract_x
_atom_site_fract_y
_atom_site_fract_z
_atom_site_occupancy
Al Al1 1 0.333329701 0.1666651 0.666812117 1
Al Al2 1 0.333243736 0.666622118 0.666721753 1
Al Al3 1 0.83337322 0.166751623 0.666721703 1
Al Al4 1 0.83337322 0.666622097 0.666721703 1
Al Al5 1 0.167396157 0.33260901 0.934297786 1
Al Al6 1 0.167396157 0.834786648 0.934297786 1
Al Al7 1 0.665220137 0.332609819 0.934297571 1
Al Al8 1 0.666667904 0.833333702 0.932243298 1
Al Al9 1 0.000168951 8.4476e-05 0.800168845 1
Al Al10 1 -2.85e-06 0.499998575 0.799841532 1
Al Al11 1 0.499910492 8.5036e-05 0.800168863 1
Al Al12 1 0.499910492 0.499825456 0.800168863 1
Al Al13 1 -6.8528e-05 -3.4264e-05 0.599955136 1
Al Al14 1 -3.338e-06 0.499998331 0.599821081 1
Al Al15 1 0.500029048 -3.4501e-05 0.599955166 1
Al Al16 1 0.500029048 0.500063549 0.599955166 1
Al Al17 1 0.166754489 0.333240696 0.733348735 1
Al Al18 1 0.166754489 0.833513293 0.733348735 1
Al Al19 1 0.666482042 0.333240771 0.733348724 1
Al Al20 1 0.666663485 0.833331492 0.73332219 1
Al Al21 1 0.333332722 0.166666611 0.867340106 1
Al Al22 1 0.330927596 0.665464048 0.86686865 1
Al Al23 1 0.834541092 0.169079543 0.866868733 1
Al Al24 1 0.834541092 0.665462049 0.866868733 1
Al Al25 1 0.333329816 0.166665158 0.466370847 1
Al Al26 1 0.333414579 0.66670754 0.466381333 1
Al Al27 1 0.833287676 0.166580706 0.466381559 1
Al Al28 1 0.833287676 0.66670747 0.466381559 1
Al Al29 1 -0.010027445 -0.005013723 0.000222228 1
Al Al30 1 8.606e-06 0.500004303 0.000555723 1
Al Al31 1 0.50503741 -0.005013681 0.000222794 1
Al Al32 1 0.50503741 0.510051092 0.000222794 1
Al Al33 1 0.166548884 0.33344481 0.533544093 1
Al Al34 1 0.166548884 0.833103574 0.533544093 1
Al Al35 1 0.666889451 0.333444476 0.533544222 1
Al Al36 1 0.666662971 0.833331236 0.533578562 1
H H37 1 0.33333 0.16667 0.025587217 1
