
data_Al
_symmetry_space_group_name_H-M   'P 1'
_cell_length_a   5.70558868814
_cell_length_b   5.70558868814
_cell_length_c   34.9394503837
_cell_angle_alpha   90.
_cell_angle_beta   90.
_cell_angle_gamma   120
_symmetry_Int_Tables_number   1
_chemical_formula_structural   Al
_chemical_formula_sum   Al37
_cell_volume   1137.40986313
_cell_formula_units_Z   37
loop_
_symmetry_equiv_pos_site_id
_symmetry_equiv_pos_as_xyz
1  'x, y, z'
loop_
_atom_site_type_symbol
_atom_site_label
_atom_site_symmetry_multiplicity
_atom_site_fract_x
_atom_site_fract_y
_atom_site_fract_z
_atom_site_occupancy
Al Al1 1 0.333624326 0.166373279 0.666721598 1
Al Al2 1 0.333623748 0.667247606 0.666721623 1
Al Al3 1 0.832748859 0.166373291 0.666721583 1
Al Al4 1 0.833332931 0.666665866 0.666789016 1
Al Al5 1 0.166666692 0.333333579 0.934866205 1
Al Al6 1 0.16439669 0.83219711 0.932464737 1
Al Al7 1 0.667797167 0.3355951 0.932464579 1
Al Al8 1 0.667799584 0.832197211 0.93246468 1
Al Al9 1 0.000415779 0.000831452 0.799726467 1
Al Al10 1 0.000416631 0.499581936 0.799726585 1
Al Al11 1 0.499999882 -3.9e-07 0.80049166 1
Al Al12 1 0.499165357 0.499581913 0.79972657 1
Al Al13 1 6.866e-06 1.3621e-05 0.599976326 1
Al Al14 1 6.859e-06 0.49999233 0.599976344 1
Al Al15 1 0.499999614 -7.13e-07 0.599701834 1
Al Al16 1 0.499985471 0.499992285 0.599976354 1
Al Al17 1 0.16666621 0.333332499 0.733059361 1
Al Al18 1 0.166980435 0.833489649 0.733474335 1
Al Al19 1 0.66650935 0.333018681 0.733474391 1
Al Al20 1 0.666509206 0.8334897 0.733474328 1
Al Al21 1 0.332201175 0.167801986 0.86693913 1
Al Al22 1 0.332203634 0.664407282 0.866939201 1
Al Al23 1 0.835600818 0.167801992 0.866939128 1
Al Al24 1 0.833333403 0.666666771 0.865858167 1
Al Al25 1 0.333425617 0.166572481 0.466391562 1
Al Al26 1 0.333425047 0.666850156 0.466391348 1
Al Al27 1 0.833146886 0.166572521 0.466391563 1
Al Al28 1 0.833333002 0.666665889 0.466261984 1
Al Al29 1 -0.001150345 -0.002301703 0.001049116 1
Al Al30 1 -0.001153371 0.501163047 0.001048909 1
Al Al31 1 0.50000149 1.321e-06 -0.001353326 1
Al Al32 1 0.50231728 0.501162997 0.001048859 1
Al Al33 1 0.166666404 0.33333281 0.533610233 1
Al Al34 1 0.16632863 0.833163407 0.533502977 1
Al Al35 1 0.666834714 0.333669278 0.533503069 1
Al Al36 1 0.666834893 0.833163461 0.533502994 1
H H37 1 0.16667 0.33333 0.029976512 1
