
data_Al
_symmetry_space_group_name_H-M   'P 1'
_cell_length_a   5.70558868814
_cell_length_b   5.70558868814
_cell_length_c   34.9394503837
_cell_angle_alpha   90.
_cell_angle_beta   90.
_cell_angle_gamma   120
_symmetry_Int_Tables_number   1
_chemical_formula_structural   Al
_chemical_formula_sum   Al37
_cell_volume   1137.40986313
_cell_formula_units_Z   37
loop_
_symmetry_equiv_pos_site_id
_symmetry_equiv_pos_as_xyz
1  'x, y, z'
loop_
_atom_site_type_symbol
_atom_site_label
_atom_site_symmetry_multiplicity
_atom_site_fract_x
_atom_site_fract_y
_atom_site_fract_z
_atom_site_occupancy
Al Al1 1 0.332834963 0.166417732 0.666806921 1
Al Al2 1 0.3333335 0.666667 0.666257126 1
Al Al3 1 0.833582768 0.166417732 0.666806921 1
Al Al4 1 0.833582768 0.667165537 0.666806921 1
Al Al5 1 0.164368379 0.328736758 0.933039633 1
Al Al6 1 0.164368379 0.835631121 0.933039633 1
Al Al7 1 0.6666665 0.333333 0.931494577 1
Al Al8 1 0.671262742 0.835631121 0.933039633 1
Al Al9 1 0.0 0.0 0.79922946 1
Al Al10 1 0.000820004 0.500410002 0.799961137 1
Al Al11 1 0.499589998 -0.000820004 0.799961137 1
Al Al12 1 0.499589998 0.500410002 0.799961137 1
Al Al13 1 -0.0 -0.0 0.600093603 1
Al Al14 1 -0.00066644 0.49966678 0.599812779 1
Al Al15 1 0.50033322 0.00066644 0.599812779 1
Al Al16 1 0.50033322 0.49966678 0.599812779 1
Al Al17 1 0.166945982 0.333891963 0.733242886 1
Al Al18 1 0.166945982 0.833053518 0.733242886 1
Al Al19 1 0.6666665 0.333333 0.733620211 1
Al Al20 1 0.666107537 0.833053518 0.733242886 1
Al Al21 1 0.33227542 0.16613796 0.865926698 1
Al Al22 1 0.3333335 0.666667 0.867335293 1
Al Al23 1 0.83386254 0.16613796 0.865926698 1
Al Al24 1 0.83386254 0.66772508 0.865926698 1
Al Al25 1 0.333591204 0.166795852 0.466098752 1
Al Al26 1 0.3333335 0.666667 0.466450277 1
Al Al27 1 0.833204648 0.166795852 0.466098752 1
Al Al28 1 0.833204648 0.666409296 0.466098752 1
Al Al29 1 0.0 0.0 0.008301789 1
Al Al30 1 -0.002761502 0.498619249 -0.001940251 1
Al Al31 1 0.501380751 0.002761502 -0.001940251 1
Al Al32 1 0.501380751 0.498619249 -0.001940251 1
Al Al33 1 0.166424021 0.332848041 0.533498383 1
Al Al34 1 0.166424021 0.833575479 0.533498383 1
Al Al35 1 0.6666665 0.333333 0.533240029 1
Al Al36 1 0.667151459 0.833575479 0.533498383 1
H H37 1 0.0 0.0 0.054636825 1
