
data_Al
_symmetry_space_group_name_H-M   'P 1'
_cell_length_a   5.70558868814
_cell_length_b   5.70558868814
_cell_length_c   34.9394503837
_cell_angle_alpha   90.
_cell_angle_beta   90.
_cell_angle_gamma   120
_symmetry_Int_Tables_number   1
_chemical_formula_structural   Al
_chemical_formula_sum   Al37
_cell_volume   1137.40986313
_cell_formula_units_Z   37
loop_
_symmetry_equiv_pos_site_id
_symmetry_equiv_pos_as_xyz
1  'x, y, z'
loop_
_atom_site_type_symbol
_atom_site_label
_atom_site_symmetry_multiplicity
_atom_site_fract_x
_atom_site_fract_y
_atom_site_fract_z
_atom_site_occupancy
Al Al1 1 0.333543285 0.166427848 0.667249449 1
Al Al2 1 0.333442167 0.666303447 0.667206949 1
Al Al3 1 0.833671201 0.166529823 0.667206763 1
Al Al4 1 0.833642006 0.666327128 0.667106762 1
Al Al5 1 0.16106339 0.338953338 0.934219073 1
Al Al6 1 0.161899581 0.841206972 0.934286716 1
Al Al7 1 0.658838697 0.338157866 0.934288643 1
Al Al8 1 0.660787132 0.839245246 0.93214549 1
Al Al9 1 -0.002694192 0.003533425 0.800414495 1
Al Al10 1 -0.00350826 0.503526091 0.800143459 1
Al Al11 1 0.496738106 0.003269015 0.800444862 1
Al Al12 1 0.496483754 0.502709922 0.800413954 1
Al Al13 1 0.000222337 -0.000209248 0.600318803 1
Al Al14 1 0.000358895 0.4995952 0.600220271 1
Al Al15 1 0.500372017 -0.000415704 0.600464862 1
Al Al16 1 0.500162866 0.499733052 0.600318845 1
Al Al17 1 0.166049846 0.333944402 0.733813697 1
Al Al18 1 0.166212527 0.834050781 0.733761295 1
Al Al19 1 0.665942315 0.333775921 0.733761576 1
Al Al20 1 0.666079284 0.83391342 0.733804588 1
Al Al21 1 0.327892058 0.172131831 0.867434561 1
Al Al22 1 0.325346812 0.670971385 0.866920825 1
Al Al23 1 0.829037378 0.174670214 0.866921219 1
Al Al24 1 0.828478802 0.67153212 0.866970237 1
Al Al25 1 0.333869029 0.166069516 0.467051792 1
Al Al26 1 0.333922962 0.66624408 0.466980311 1
Al Al27 1 0.833697404 0.166018063 0.466980372 1
Al Al28 1 0.833753478 0.66618877 0.467093827 1
Al Al29 1 -0.01542339 -0.000733722 -0.000137654 1
Al Al30 1 -0.0047407 0.504879375 0.000469426 1
Al Al31 1 0.499881056 0.000265739 0.000205755 1
Al Al32 1 0.500805669 0.515509652 -0.00013578 1
Al Al33 1 0.166710651 0.333233432 0.533972011 1
Al Al34 1 0.166949141 0.83283553 0.534093491 1
Al Al35 1 0.667108036 0.332995899 0.534093702 1
Al Al36 1 0.666781424 0.833163913 0.534053745 1
H H37 1 0.326623238 0.173446258 0.025441608 1
