
data_Al
_symmetry_space_group_name_H-M   'P 1'
_cell_length_a   5.70558868814
_cell_length_b   5.70558868814
_cell_length_c   34.9394503837
_cell_angle_alpha   90.
_cell_angle_beta   90.
_cell_angle_gamma   120
_symmetry_Int_Tables_number   1
_chemical_formula_structural   Al
_chemical_formula_sum   Al37
_cell_volume   1137.40986313
_cell_formula_units_Z   37
loop_
_symmetry_equiv_pos_site_id
_symmetry_equiv_pos_as_xyz
1  'x, y, z'
loop_
_atom_site_type_symbol
_atom_site_label
_atom_site_symmetry_multiplicity
_atom_site_fract_x
_atom_site_fract_y
_atom_site_fract_z
_atom_site_occupancy
Al Al1 1 0.333329784 0.166665142 0.666814289 1
Al Al2 1 0.333237344 0.666618922 0.666722077 1
Al Al3 1 0.833376552 0.166758145 0.666722024 1
Al Al4 1 0.833376552 0.666618907 0.666722024 1
Al Al5 1 0.167401946 0.332603112 0.934296514 1
Al Al6 1 0.167401946 0.834798334 0.934296514 1
Al Al7 1 0.665208372 0.332603936 0.93429631 1
Al Al8 1 0.666667832 0.833333666 0.932232575 1
Al Al9 1 0.000159979 7.999e-05 0.800161841 1
Al Al10 1 -2.788e-06 0.499998606 0.799836687 1
Al Al11 1 0.49991508 8.0547e-05 0.80016186 1
Al Al12 1 0.49991508 0.499834533 0.80016186 1
Al Al13 1 -6.1884e-05 -3.0942e-05 0.599955862 1
Al Al14 1 -3.237e-06 0.499998381 0.599821831 1
Al Al15 1 0.500025864 -3.1183e-05 0.599955893 1
Al Al16 1 0.500025864 0.500057047 0.599955893 1
Al Al17 1 0.16674815 0.333247138 0.733348245 1
Al Al18 1 0.16674815 0.833500512 0.733348245 1
Al Al19 1 0.666494934 0.333247217 0.733348235 1
Al Al20 1 0.66666358 0.83333154 0.733319311 1
Al Al21 1 0.333332679 0.16666659 0.86733272 1
Al Al22 1 0.330925016 0.665462758 0.866869298 1
Al Al23 1 0.834542257 0.16908198 0.866869386 1
Al Al24 1 0.834542257 0.665460777 0.866869386 1
Al Al25 1 0.33332989 0.166665195 0.466372154 1
Al Al26 1 0.333417059 0.666708779 0.466381784 1
Al Al27 1 0.833286611 0.166578384 0.46638201 1
Al Al28 1 0.833286611 0.666708727 0.46638201 1
Al Al29 1 -0.009931372 -0.004965686 0.000238245 1
Al Al30 1 8.398e-06 0.500004199 0.000541004 1
Al Al31 1 0.504989016 -0.004965616 0.000238781 1
Al Al32 1 0.504989016 0.509954632 0.000238781 1
Al Al33 1 0.166555096 0.333438731 0.533544599 1
Al Al34 1 0.166555096 0.833115866 0.533544599 1
Al Al35 1 0.666877283 0.333438392 0.533544728 1
Al Al36 1 0.666663076 0.833331288 0.53357941 1
H H37 1 0.333332911 0.166671455 0.025593014 1
