
data_Al
_symmetry_space_group_name_H-M   'P 1'
_cell_length_a   5.70558868814
_cell_length_b   5.70558868814
_cell_length_c   34.9394503837
_cell_angle_alpha   90.
_cell_angle_beta   90.
_cell_angle_gamma   120
_symmetry_Int_Tables_number   1
_chemical_formula_structural   Al
_chemical_formula_sum   Al37
_cell_volume   1137.40986313
_cell_formula_units_Z   37
loop_
_symmetry_equiv_pos_site_id
_symmetry_equiv_pos_as_xyz
1  'x, y, z'
loop_
_atom_site_type_symbol
_atom_site_label
_atom_site_symmetry_multiplicity
_atom_site_fract_x
_atom_site_fract_y
_atom_site_fract_z
_atom_site_occupancy
Al Al1 1 0.333624411 0.1663732 0.666721436 1
Al Al2 1 0.333623837 0.667247782 0.666721462 1
Al Al3 1 0.832748693 0.16637321 0.666721424 1
Al Al4 1 0.833332929 0.666665875 0.666788839 1
Al Al5 1 0.1666667 0.333333582 0.934866012 1
Al Al6 1 0.164397637 0.832197573 0.932465322 1
Al Al7 1 0.667796761 0.335594217 0.932465162 1
Al Al8 1 0.667799183 0.832197645 0.932465268 1
Al Al9 1 0.000415362 0.000830631 0.799726401 1
Al Al10 1 0.000416213 0.499582347 0.799726516 1
Al Al11 1 0.499999877 -3.86e-07 0.800491095 1
Al Al12 1 0.49916618 0.499582326 0.799726506 1
Al Al13 1 6.755e-06 1.34e-05 0.599976197 1
Al Al14 1 6.75e-06 0.499992441 0.599976216 1
Al Al15 1 0.499999613 -7.16e-07 0.599701913 1
Al Al16 1 0.499985697 0.499992401 0.599976224 1
Al Al17 1 0.166666216 0.333332497 0.73305943 1
Al Al18 1 0.166979792 0.833489336 0.733474157 1
Al Al19 1 0.666509667 0.333019326 0.733474216 1
Al Al20 1 0.666509536 0.833489375 0.733474149 1
Al Al21 1 0.332202042 0.167801123 0.866939108 1
Al Al22 1 0.33220449 0.664408996 0.866939179 1
Al Al23 1 0.835599093 0.167801132 0.866939107 1
Al Al24 1 0.833333396 0.666666766 0.86585897 1
Al Al25 1 0.333425736 0.166572376 0.466391412 1
Al Al26 1 0.33342516 0.666850384 0.466391196 1
Al Al27 1 0.83314666 0.166572416 0.466391412 1
Al Al28 1 0.833332999 0.666665882 0.466262069 1
Al Al29 1 -0.001148834 -0.00229864 0.001049328 1
Al Al30 1 -0.001151886 0.501161521 0.001049121 1
Al Al31 1 0.500001375 1.329e-06 -0.00135181 1
Al Al32 1 0.502314173 0.501161446 0.001049073 1
Al Al33 1 0.166666405 0.33333281 0.533609991 1
Al Al34 1 0.16632806 0.833163124 0.533502726 1
Al Al35 1 0.666835002 0.333669853 0.533502818 1
Al Al36 1 0.666835179 0.833163177 0.533502744 1
H H37 1 0.166669142 0.333330243 0.02997561 1
